/*---------------------------------------------------------------------------*\
| =========                 |                                                 |
| \\      /  F ield         | OpenFOAM: The Open Source CFD Toolbox           |
|  \\    /   O peration     | Version:  2406                                  |
|   \\  /    A nd           | Website:  www.openfoam.com                      |
|    \\/     M anipulation  |                                                 |
\*---------------------------------------------------------------------------*/
Build  : _52c02cff-20240620 OPENFOAM=2406 version=2406
Arch   : "LSB;label=32;scalar=64"
Exec   : checkMesh -allRegions -allGeometry -allTopology
Date   : Dec 02 2024
Time   : 11:58:14
Host   : Laptop
PID    : 12198
I/O    : uncollated
Case   : /mnt/c/Users/jtden/Documents/GitHub/Gilgamesh/Mesh_checking
nProcs : 1
trapFpe: Floating point exception trapping enabled (FOAM_SIGFPE).
fileModificationChecking : Monitoring run-time modified files using timeStampMaster (fileModificationSkew 5, maxFileModificationPolls 20)
allowSystemOperations : Allowing user-supplied system call operations

// * * * * * * * * * * * * * * * * * * * * * * * * * * * * * * * * * * * * * //
Create time

--> FOAM Warning : 
    From static Foam::instantList Foam::timeSelector::select0(Foam::Time&, const Foam::argList&)
    in file db/Time/timeSelector.C at line 284
    No time specified or available, selecting 'constant'
Create mesh for time = constant

Check mesh...
    Enabling all (cell, face, edge, point) topology checks.
    Enabling all geometry checks.

Time = constant

Mesh stats 
    points:           62217
    faces:            439861
    internal faces:   331971
    cells:            192958
    faces per cell:   4
    boundary patches: 1
    point zones:      0
    face zones:       0
    cell zones:       0

Overall number of cells of each type:
    hexahedra:     0
    prisms:        0
    wedges:        0
    pyramids:      0
    tet wedges:    0
    tetrahedra:    192958
    polyhedra:     0

Checking topology...
    Boundary definition OK.
    Cell to face addressing OK.
    Point usage OK.
    Upper triangular ordering OK.
    Face vertices OK.
    Topological cell zip-up check OK.
    Face-face connectivity OK.
  <<Writing 13 cells with zero or one non-boundary face to set oneInternalFaceCells
  <<Writing 2385 cells with two non-boundary faces to set twoInternalFacesCells
    Number of regions: 1 (OK).

Checking patch topology for multiply connected surfaces...
    Patch               Faces    Points     Surface topology  Bounding box
    defaultFaces        107890   53872    multiply connected (shared edge)   (-7.43718 -7.1167 -7.45866) (7.4504 7.08765 1.50417)
    ".*"                107890   53872    multiply connected (shared edge)   (-7.43718 -7.1167 -7.45866) (7.4504 7.08765 1.50417)

Detected 1 bad edges (possibly relevant for finite-area)

Checking faceZone topology for multiply connected surfaces...
    No faceZones found.
  <<Writing 2 conflicting points to set nonManifoldPoints

Checking basic cellZone addressing...
    No cellZones found.

Checking basic pointZone addressing...
    No pointZones found.

Checking geometry...
    Overall domain bounding box (-7.43718 -7.1167 -7.45866) (7.4504 7.08765 1.50417)
    Mesh has 3 geometric (non-empty/wedge) directions (1 1 1)
    Mesh has 3 solution (non-empty) directions (1 1 1)
    Boundary openness (-1.15376e-17 2.52438e-18 1.19391e-17) OK.
    Max cell openness = 5.107e-16 OK.
    Max aspect ratio = 21.8183 OK.
    Minimum face area = 7.48419e-05. Maximum face area = 0.517891.  Face area magnitudes OK.
    Min volume = 1.50723e-07. Max volume = 0.109949.  Total volume = 517.518.  Cell volumes OK.
    Mesh non-orthogonality Max: 81.112 average: 29.5956
   *Number of severely non-orthogonal (> 70 degrees) faces: 154.
    Non-orthogonality check OK.
  <<Writing 154 non-orthogonal faces to set nonOrthoFaces
    Face pyramids OK.
    Max skewness = 2.11813 OK.
    Coupled point location match (average 0) OK.
    Face tets OK.
    Min/max edge length = 0.012463 1.20083 OK.
    All angles in faces OK.
    All face flatness OK.
    Cell determinant (wellposedness) : minimum: 0 average: 0.0436758
 ***Cells with small determinant (< 0.001) found, number of cells: 3049
  <<Writing 3049 under-determined cells to set underdeterminedCells
    Concave cell check OK.
    Face interpolation weight : minimum: 0.0195653 average: 0.368548
 ***Faces with small interpolation weight (< 0.05) found, number of faces: 136
  <<Writing 136 faces with low interpolation weights to set lowWeightFaces
    Face volume ratio : minimum: 0.0199558 average: 0.623139
    Face volume ratio check OK.

Failed 2 mesh checks.

End

