/*---------------------------------------------------------------------------*\
| =========                 |                                                 |
| \\      /  F ield         | OpenFOAM: The Open Source CFD Toolbox           |
|  \\    /   O peration     | Version:  2406                                  |
|   \\  /    A nd           | Website:  www.openfoam.com                      |
|    \\/     M anipulation  |                                                 |
\*---------------------------------------------------------------------------*/
Build  : _52c02cff-20240620 OPENFOAM=2406 version=2406
Arch   : "LSB;label=32;scalar=64"
Exec   : blockMesh
Date   : Dec 04 2024
Time   : 09:25:51
Host   : Laptop
PID    : 1920
I/O    : uncollated
Case   : /home/jtdenhertog/TW3715_Final_Minor_Project/TestConstantin1
nProcs : 1
trapFpe: Floating point exception trapping enabled (FOAM_SIGFPE).
fileModificationChecking : Monitoring run-time modified files using timeStampMaster (fileModificationSkew 5, maxFileModificationPolls 20)
allowSystemOperations : Allowing user-supplied system call operations

// * * * * * * * * * * * * * * * * * * * * * * * * * * * * * * * * * * * * * //
Create time

--> FOAM Warning : 
    From static Foam::IOstreamOption::compressionType Foam::IOstreamOption::compressionEnum(const Foam::word&, compressionType)
    in file db/options/IOstreamOption.C at line 189
    Unknown compression specifier 'uncompressed' using compression off
--> FOAM Warning : 
    From blockMesh
    in file findBlockMeshDict.H at line 56
    Using the old blockMeshDict location: "constant/polyMesh/blockMeshDict"
    instead of the default location:  "system/blockMeshDict"

Creating block mesh from "constant/polyMesh/blockMeshDict"
--> FOAM IOWarning :
    Found [v1012] 'convertToMeters' entry instead of 'scale' in dictionary "constant/polyMesh/blockMeshDict"

    This keyword is 162 months old.

Creating block edges
Creating block faces
Creating topology blocks

Creating topology patches - from boundary section

Creating block mesh topology - scaling/transform applied later

Check topology

	Basic statistics
		Number of internal faces : 0
		Number of boundary faces : 6
		Number of defined boundary faces : 6
		Number of undefined boundary faces : 0
	Checking patch -> block consistency

Creating block offsets
Creating merge list (topological search)...
Not deleting polyMesh directory "constant/polyMesh"
    because it contains blockMeshDict

Creating polyMesh from blockMesh
Creating patches
Creating cells
Creating points with scale (0.001 0.001 0.001)
    Block 0 cell size :
        i : 0.00026666667 .. 0.00026666667
        j : 0.00026666667 .. 0.00026666667
        k : 0.00021333333 .. 0.00021333333

No patch pairs to merge

Writing polyMesh with 0 cellZones
----------------
Mesh Information
----------------
  boundingBox: (-0.004 -0.004 -0.008) (0.004 0.004 0.008)
  nPoints: 73036
  nCells: 67500
  nFaces: 207900
  nInternalFaces: 197100
----------------
Patches
----------------
  patch 0 (start: 197100 size: 900) name: inlet
  patch 1 (start: 198000 size: 900) name: outlet
  patch 2 (start: 198900 size: 9000) name: sides

End

